Привет, Таджик!!!
Привет, Тимур!!!

Сегодня я дела. лабораторные работы по ввсп
Проще говоря, я разбираюсь с Git.

New string.

new line.
